Version 4
SHEET 1 880 680
WIRE 480 112 480 48
WIRE 208 128 208 48
WIRE 176 144 0 144
WIRE 416 160 272 160
WIRE 176 176 112 176
WIRE 208 240 208 192
WIRE 304 240 208 240
WIRE 480 304 480 208
WIRE 528 304 480 304
WIRE 544 304 528 304
WIRE -16 368 -80 368
WIRE 112 368 112 176
WIRE 112 368 64 368
WIRE 176 368 112 368
WIRE 480 368 480 304
WIRE 480 368 256 368
WIRE 544 368 544 304
WIRE -80 416 -80 368
WIRE 480 464 480 448
WIRE 512 464 480 464
WIRE 544 464 544 432
WIRE 544 464 512 464
WIRE 512 496 512 464
FLAG -80 416 0
FLAG 512 496 0
FLAG 0 224 0
FLAG 304 240 0
FLAG 208 -32 0
FLAG 480 -32 0
FLAG 528 304 Vout
SYMBOL AutoGenerated\\LM324 208 160 R0
SYMATTR InstName U1
SYMBOL npn 416 112 R0
SYMATTR InstName Q1
SYMATTR Value 2N3904
SYMBOL res 272 352 R90
WINDOW 0 0 56 VBottom 2
WINDOW 3 32 56 VTop 2
SYMATTR InstName R1
SYMATTR Value 10k
SYMBOL res 80 352 R90
WINDOW 0 0 56 VBottom 2
WINDOW 3 32 56 VTop 2
SYMATTR InstName R2
SYMATTR Value 1k
SYMBOL res 496 464 R180
WINDOW 0 36 76 Left 2
WINDOW 3 36 40 Left 2
SYMATTR InstName R3
SYMATTR Value 1k
SYMBOL cap 528 368 R0
SYMATTR InstName C1
SYMATTR Value 100µ
SYMBOL voltage 0 128 R0
WINDOW 123 0 0 Left 0
WINDOW 39 0 0 Left 0
SYMATTR InstName V1
SYMATTR Value 1
SYMBOL voltage 208 64 R180
WINDOW 0 24 96 Left 2
WINDOW 3 24 16 Left 2
WINDOW 123 0 0 Left 0
WINDOW 39 0 0 Left 0
SYMATTR InstName V2
SYMATTR Value 5
SYMBOL voltage 480 64 R180
WINDOW 0 24 96 Left 2
WINDOW 3 24 16 Left 2
WINDOW 123 121 -5 Left 2
WINDOW 39 0 0 Left 0
SYMATTR InstName V3
SYMATTR Value SINE(1 0.2 1k)
SYMATTR Value2 AC 1 0
TEXT -100 520 Left 2 !.tran 0 10m 0 1m
