Version 4
SHEET 1 880 680
WIRE 48 -176 48 -208
WIRE 48 -176 -160 -176
WIRE 208 -176 48 -176
WIRE -160 -128 -160 -176
WIRE 48 -128 48 -176
WIRE 208 -128 208 -176
WIRE -160 0 -160 -48
WIRE 48 0 48 -48
WIRE 208 0 208 -48
WIRE 352 48 304 48
WIRE -160 80 -272 80
WIRE -96 80 -160 80
WIRE 48 80 -16 80
WIRE 80 80 48 80
WIRE 208 80 160 80
WIRE 304 128 304 48
WIRE 208 144 208 80
WIRE 272 144 208 144
WIRE 400 160 368 160
WIRE 272 176 224 176
WIRE 304 240 304 192
WIRE 352 240 304 240
WIRE 224 304 224 176
WIRE 224 304 176 304
WIRE 272 304 224 304
WIRE 400 304 400 160
WIRE 400 304 352 304
FLAG 352 240 0
FLAG 432 48 0
FLAG 96 304 0
FLAG -272 0 0
FLAG 48 -208 0
SYMBOL AutoGenerated\\LM324 304 160 R0
SYMATTR InstName U1
SYMBOL res 368 288 R90
WINDOW 0 0 56 VBottom 2
WINDOW 3 32 56 VTop 2
SYMATTR InstName R1
SYMATTR Value 1k
SYMBOL res 192 288 R90
WINDOW 0 0 56 VBottom 2
WINDOW 3 32 56 VTop 2
SYMATTR InstName R2
SYMATTR Value 1k
SYMBOL res 192 -16 R0
SYMATTR InstName R3
SYMATTR Value 20k
SYMBOL res 176 64 R90
WINDOW 0 0 56 VBottom 2
WINDOW 3 32 56 VTop 2
SYMATTR InstName R4
SYMATTR Value 10k
SYMBOL res 64 96 R180
WINDOW 0 36 76 Left 2
WINDOW 3 36 40 Left 2
SYMATTR InstName R5
SYMATTR Value 20k
SYMBOL res -112 96 R270
WINDOW 0 32 56 VTop 2
WINDOW 3 0 56 VBottom 2
SYMATTR InstName R6
SYMATTR Value 10k
SYMBOL res -176 -16 R0
SYMATTR InstName R7
SYMATTR Value 20k
SYMBOL res -288 -16 R0
SYMATTR InstName R8
SYMATTR Value 20k
SYMBOL voltage 336 48 R270
WINDOW 0 32 56 VTop 2
WINDOW 3 -32 56 VBottom 2
WINDOW 123 0 0 Left 0
WINDOW 39 0 0 Left 0
SYMATTR InstName Vcc
SYMATTR Value 5
SYMBOL voltage -160 -32 R180
WINDOW 0 24 96 Left 2
WINDOW 3 24 16 Left 2
WINDOW 123 0 0 Left 0
WINDOW 39 0 0 Left 0
SYMATTR InstName V0
SYMATTR Value 5
SYMBOL voltage 48 -32 R180
WINDOW 0 24 96 Left 2
WINDOW 3 24 16 Left 2
WINDOW 123 0 0 Left 0
WINDOW 39 0 0 Left 0
SYMATTR InstName V1
SYMATTR Value 0
SYMBOL voltage 208 -32 R180
WINDOW 0 24 96 Left 2
WINDOW 3 24 16 Left 2
WINDOW 123 0 0 Left 0
WINDOW 39 0 0 Left 0
SYMATTR InstName V2
SYMATTR Value 0
TEXT -292 354 Left 2 !.tran 0 10m 0 1m
