Version 4
SHEET 1 880 680
WIRE 208 0 192 0
WIRE 336 0 288 0
WIRE 176 16 -160 16
WIRE 176 96 176 16
WIRE 240 96 176 96
WIRE 240 144 240 96
WIRE -64 160 -304 160
WIRE 48 160 -64 160
WIRE 192 160 192 0
WIRE 192 160 128 160
WIRE 208 160 192 160
WIRE 336 176 336 0
WIRE 336 176 304 176
WIRE 144 192 -160 192
WIRE 208 192 144 192
WIRE -304 224 -304 160
WIRE -160 224 -160 192
WIRE -160 304 -304 304
WIRE 240 304 240 208
WIRE 240 304 -160 304
WIRE -160 320 -160 304
FLAG -160 320 0
FLAG -160 96 0
FLAG 336 176 Vout
FLAG -64 160 Vref
FLAG 192 160 V+
FLAG 144 192 V-
SYMBOL LM339 240 176 R0
SYMATTR InstName U1
SYMBOL res 144 144 R90
WINDOW 0 0 56 VBottom 2
WINDOW 3 32 56 VTop 2
SYMATTR InstName R1
SYMATTR Value 10k
SYMBOL res 304 -16 R90
WINDOW 0 0 56 VBottom 2
WINDOW 3 32 56 VTop 2
SYMATTR InstName R2
SYMATTR Value 30k
SYMBOL voltage -160 208 R0
WINDOW 123 30 84 Left 2
WINDOW 39 0 0 Left 0
WINDOW 3 30 114 Left 2
SYMATTR Value2 AC 1 0
SYMATTR Value PULSE(0 15 0 0.1m 0.1m 0 0.2m)
SYMATTR InstName V1
SYMBOL voltage -160 0 R0
WINDOW 123 0 0 Left 0
WINDOW 39 0 0 Left 0
SYMATTR InstName V2
SYMATTR Value 5
SYMBOL voltage -304 208 R0
WINDOW 3 -5 113 Left 2
WINDOW 123 -8 135 Left 2
WINDOW 39 0 0 Left 0
SYMATTR Value 2.5
SYMATTR Value2 AC 1 0
SYMATTR InstName V3
TEXT -624 312 Left 2 !.tran 0 1m 0 0.1u
TEXT -624 280 Left 2 !.lib LM339.sub
