Version 4
SHEET 1 880 680
WIRE 272 112 240 112
WIRE 208 128 0 128
WIRE 368 144 304 144
WIRE -144 160 -144 128
WIRE 208 160 112 160
WIRE 272 176 240 176
WIRE -144 240 -224 240
WIRE -144 256 -144 240
WIRE -224 272 -224 240
WIRE 32 320 0 320
WIRE 112 320 112 160
WIRE 256 320 112 320
WIRE -144 352 -144 336
WIRE 256 352 256 320
WIRE 0 368 0 320
WIRE 112 400 112 320
WIRE 192 400 112 400
WIRE 368 448 368 144
WIRE 368 448 256 448
FLAG 0 128 0
FLAG -224 272 0
FLAG 0 448 0
FLAG -144 128 Vcc
IOPIN -144 128 In
FLAG 272 112 Vcc
IOPIN 272 112 In
FLAG -144 352 Vss
IOPIN -144 352 In
FLAG 272 176 Vss
IOPIN 272 176 In
SYMBOL AutoGenerated\\LM324 240 144 R0
SYMATTR InstName U1
SYMBOL npn 192 352 R0
SYMATTR InstName Q1
SYMATTR Value 2N3904
SYMBOL voltage -144 144 R0
WINDOW 123 0 0 Left 0
WINDOW 39 0 0 Left 0
SYMATTR InstName V1
SYMATTR Value 5
SYMBOL voltage -144 240 R0
WINDOW 123 0 0 Left 0
WINDOW 39 0 0 Left 0
SYMATTR InstName V2
SYMATTR Value 5
SYMBOL res 128 304 R90
WINDOW 0 0 56 VBottom 2
WINDOW 3 32 56 VTop 2
SYMATTR InstName R1
SYMATTR Value 1k
SYMBOL voltage 0 352 R0
WINDOW 123 0 0 Left 0
WINDOW 39 0 0 Left 0
SYMATTR InstName V3
SYMATTR Value PULSE(2.5 5 0 0.5m 0.5m 0 1m)
TEXT -248 472 Left 2 !.dc V3 -5 5 0.01
