Version 4
SHEET 1 880 680
WIRE 336 144 272 144
WIRE 240 160 96 160
WIRE 384 176 336 176
WIRE 240 192 208 192
WIRE 336 208 272 208
WIRE -96 240 -96 208
WIRE -96 240 -176 240
WIRE -96 256 -96 240
WIRE 80 336 16 336
WIRE 208 336 208 192
WIRE 208 336 144 336
WIRE 240 336 208 336
WIRE 384 336 384 176
WIRE 384 336 320 336
WIRE 16 400 16 336
FLAG 96 160 0
FLAG -176 240 0
FLAG 16 480 0
FLAG -96 128 Vcc
FLAG 336 144 Vcc
FLAG -96 336 Vss
FLAG 336 208 Vss
SYMBOL AutoGenerated\\LM324 272 176 R0
SYMATTR InstName U1
SYMBOL res 336 320 R90
WINDOW 0 0 56 VBottom 2
WINDOW 3 32 56 VTop 2
SYMATTR InstName R1
SYMATTR Value 1k
SYMBOL diode 80 352 R270
WINDOW 0 32 32 VTop 2
WINDOW 3 0 32 VBottom 2
SYMATTR InstName D1
SYMATTR Value 1N4148
SYMBOL voltage -96 112 R0
WINDOW 123 0 0 Left 0
WINDOW 39 0 0 Left 0
SYMATTR InstName V1
SYMATTR Value 5
SYMBOL voltage -96 240 R0
WINDOW 123 0 0 Left 0
WINDOW 39 0 0 Left 0
SYMATTR InstName V2
SYMATTR Value 5
SYMBOL voltage 16 384 R0
WINDOW 123 0 0 Left 0
WINDOW 39 0 0 Left 0
SYMATTR InstName V3
SYMATTR Value PULSE(2.5 5 0 0.5m 0.5m 0 1m)
TEXT -196 504 Left 2 !.dc V3 -5 5 0.01
