Version 4
SHEET 1 880 680
WIRE 176 128 176 48
WIRE 144 144 16 144
WIRE 256 160 240 160
WIRE 304 160 256 160
WIRE 144 176 80 176
WIRE 176 240 176 192
WIRE 304 240 176 240
WIRE 80 304 80 176
WIRE 80 304 32 304
WIRE 144 304 80 304
WIRE 256 304 256 160
WIRE 256 304 208 304
WIRE -48 384 -48 304
WIRE -48 480 -48 464
FLAG 16 144 0
FLAG 176 -32 0
FLAG -48 480 0
FLAG 304 160 Vout
FLAG 384 240 0
SYMBOL AutoGenerated\\LM324 176 160 R0
SYMATTR InstName U1
SYMBOL diode 144 320 R270
WINDOW 0 32 32 VTop 2
WINDOW 3 0 32 VBottom 2
SYMATTR InstName D1
SYMATTR Value 1N4148
SYMBOL res 48 288 R90
WINDOW 0 0 56 VBottom 2
WINDOW 3 32 56 VTop 2
SYMATTR InstName R1
SYMATTR Value 1k
SYMBOL voltage -48 368 R0
WINDOW 123 0 0 Left 0
WINDOW 39 0 0 Left 0
SYMATTR InstName V1
SYMATTR Value PULSE(2.5 5 0 0.5m 0.5m 0 1m)
SYMBOL voltage 176 64 R180
WINDOW 0 24 96 Left 2
WINDOW 3 24 16 Left 2
WINDOW 123 0 0 Left 0
WINDOW 39 0 0 Left 0
SYMATTR InstName V2
SYMATTR Value 5
SYMBOL voltage 288 240 R270
WINDOW 0 32 56 VTop 2
WINDOW 3 -32 56 VBottom 2
WINDOW 123 0 0 Left 0
WINDOW 39 0 0 Left 0
SYMATTR InstName V3
SYMATTR Value -5
TEXT -82 504 Left 2 !;.tran 0 10m 0 0.1m
TEXT -84 524 Left 2 !.dc V1 -5 5 0.01
