Version 4
SHEET 1 880 680
WIRE 320 64 320 32
WIRE 320 64 96 64
WIRE 416 64 320 64
WIRE 560 64 560 -48
WIRE 560 64 496 64
WIRE 320 80 320 64
WIRE 80 112 80 64
WIRE 192 144 176 144
WIRE 96 160 96 64
WIRE 144 160 96 160
WIRE 272 176 240 176
WIRE 320 176 320 160
WIRE 320 176 272 176
WIRE 432 176 320 176
WIRE 544 176 432 176
WIRE 80 192 80 176
WIRE 144 192 80 192
WIRE 176 224 176 208
WIRE 80 320 80 192
WIRE 144 320 80 320
WIRE 272 320 272 176
WIRE 272 320 224 320
WIRE 432 320 432 256
FLAG 80 64 0
FLAG 320 -48 0
FLAG 192 144 Vcc
IOPIN 192 144 In
FLAG 560 -48 Vcc
IOPIN 560 -48 In
FLAG 432 320 Vcc
IOPIN 432 320 In
FLAG 544 176 Vout
IOPIN 544 176 Out
FLAG 176 224 0
FLAG -160 240 0
FLAG -160 160 Vcc
IOPIN -160 160 In
SYMBOL cap 96 176 R180
WINDOW 0 24 56 Left 2
WINDOW 3 24 8 Left 2
SYMATTR InstName C1
SYMATTR Value 0.01µ
SYMBOL res 240 304 R90
WINDOW 0 0 56 VBottom 2
WINDOW 3 32 56 VTop 2
SYMATTR InstName R1
SYMATTR Value 250k
SYMBOL res 336 176 R180
WINDOW 0 36 76 Left 2
WINDOW 3 36 40 Left 2
SYMATTR InstName R2
SYMATTR Value 10k
SYMBOL res 336 48 R180
WINDOW 0 36 76 Left 2
WINDOW 3 36 40 Left 2
SYMATTR InstName R3
SYMATTR Value 10k
SYMBOL res 400 80 R270
WINDOW 0 32 56 VTop 2
WINDOW 3 0 56 VBottom 2
SYMATTR InstName R4
SYMATTR Value 10k
SYMBOL res 416 160 R0
SYMATTR InstName R5
SYMATTR Value 5k
SYMBOL AutoGenerated\\LM339 176 176 R0
SYMATTR InstName U1
SYMBOL voltage -160 144 R0
WINDOW 123 0 0 Left 0
WINDOW 39 0 0 Left 0
SYMATTR InstName V1
SYMATTR Value 5
TEXT -232 424 Left 2 !.tran 0 40m 0 0.0001m
TEXT -232 448 Left 2 !.meas VL1 MIN V(Vout)
TEXT -232 472 Left 2 !.meas T1 FIND time WHEN V(Vout)=VL1 TD=0.005 RISE=1
TEXT -232 496 Left 2 !.meas T2 FIND time WHEN V(Vout)=VL1 TD=0.02 RISE=1
TEXT -232 520 Left 2 !.meas Frequency PARAM 1/(T2-T1)
