Version 4
SHEET 1 880 680
WIRE -784 96 -784 48
WIRE -656 96 -656 48
WIRE -368 96 -464 96
WIRE -320 96 -368 96
WIRE -176 96 -240 96
WIRE 240 96 -176 96
WIRE 304 96 304 0
WIRE 304 96 288 96
WIRE 240 112 240 96
WIRE 256 112 240 112
WIRE 416 128 352 128
WIRE 496 128 416 128
WIRE 256 144 240 144
WIRE -176 160 -176 96
WIRE 240 160 240 144
WIRE 240 160 80 160
WIRE 304 160 288 160
WIRE -784 192 -784 176
WIRE -720 192 -784 192
WIRE -656 192 -656 176
WIRE -656 192 -720 192
WIRE -464 208 -464 176
WIRE -720 224 -720 192
WIRE 304 240 304 160
WIRE -176 320 -176 224
WIRE -96 320 -176 320
WIRE 80 320 80 160
WIRE 80 320 -16 320
WIRE 160 320 80 320
WIRE 416 320 416 128
WIRE 416 320 240 320
WIRE -176 352 -176 320
FLAG -176 352 0
FLAG -464 208 0
FLAG -720 224 0
FLAG -784 48 VCC
FLAG 304 0 VCC
FLAG -656 48 VSS
FLAG 304 240 VSS
FLAG 496 128 Vout
FLAG -368 96 Vin
SYMBOL AutoGenerated\\LM324 288 128 R0
SYMATTR InstName U1
SYMBOL res -224 80 R90
WINDOW 0 0 56 VBottom 2
WINDOW 3 32 56 VTop 2
SYMATTR InstName R1
SYMATTR Value 994.7184
SYMBOL res 0 304 R90
WINDOW 0 0 56 VBottom 2
WINDOW 3 32 56 VTop 2
SYMATTR InstName R2
SYMATTR Value 994.7184
SYMBOL res 256 304 R90
WINDOW 0 0 56 VBottom 2
WINDOW 3 32 56 VTop 2
SYMATTR InstName R3
SYMATTR Value 994.7184
SYMBOL cap -192 160 R0
SYMATTR InstName C1
SYMATTR Value 1µ
SYMBOL voltage -464 80 R0
WINDOW 123 24 124 Left 2
WINDOW 39 0 0 Left 0
SYMATTR Value2 AC 1 0
SYMATTR InstName V1
SYMATTR Value SINE(0 1 100)
SYMBOL voltage -784 80 R0
SYMATTR InstName V2
SYMATTR Value 5
SYMBOL voltage -656 80 R0
SYMATTR InstName V3
SYMATTR Value -5
TEXT -816 376 Left 2 !.tran 0 100m 0 0.1m
